/*--------------------------------*- C++ -*----------------------------------*\
  =========                 |
  \\      /  F ield         | OpenFOAM: The Open Source CFD Toolbox
   \\    /   O peration     | Website:  https://openfoam.org
    \\  /    A nd           | Version:  6
     \\/     M anipulation  |
\*---------------------------------------------------------------------------*/
FoamFile
{
    version     2.0;
    format      binary;
    class       polyBoundaryMesh;
    location    "constant/polyMesh";
    object      boundary;
}
// * * * * * * * * * * * * * * * * * * * * * * * * * * * * * * * * * * * * * //

9
(
    far
    {
        type            symmetryPlane;
        inGroups        1(symmetryPlane);
        nFaces          12600;
        startFace       4117900;
    }
    inlet_water
    {
        type            patch;
        nFaces          5500;
        startFace       4130500;
    }
    inlet_air
    {
        type            patch;
        nFaces          2200;
        startFace       4136000;
    }
    hull
    {
        type            wall;
        inGroups        1(wall);
        nFaces          2400;
        startFace       4138200;
    }
    freeboard
    {
        type            wall;
        inGroups        1(wall);
        nFaces          1600;
        startFace       4140600;
    }
    outlet
    {
        type            patch;
        nFaces          7700;
        startFace       4142200;
    }
    centerplane
    {
        type            symmetryPlane;
        inGroups        1(symmetryPlane);
        nFaces          8600;
        startFace       4149900;
    }
    atmosphere
    {
        type            symmetryPlane;
        inGroups        1(symmetryPlane);
        nFaces          19800;
        startFace       4158500;
    }
    bottom
    {
        type            symmetryPlane;
        inGroups        1(symmetryPlane);
        nFaces          19800;
        startFace       4178300;
    }
)

// ************************************************************************* //
